
---------- Begin Simulation Statistics ----------
final_tick                                 1117639000                       # Number of ticks from beginning of simulation (restored from checkpoints and never reset)
host_inst_rate                                 937031                       # Simulator instruction rate (inst/s)
host_mem_usage                                 674144                       # Number of bytes of host memory used
host_op_rate                                  1215302                       # Simulator op (including micro ops) rate (op/s)
host_seconds                                     0.78                       # Real time elapsed on the host
host_tick_rate                             1438068117                       # Simulator tick rate (ticks/s)
sim_freq                                 1000000000000                       # Frequency of simulated ticks
sim_insts                                      728091                       # Number of instructions simulated
sim_ops                                        944482                       # Number of ops (including micro ops) simulated
sim_seconds                                  0.001118                       # Number of seconds simulated
sim_ticks                                  1117639000                       # Number of ticks simulated
system.cpu.Branches                            157302                       # Number of branches fetched
system.cpu.committedInsts                      728091                       # Number of instructions committed
system.cpu.committedOps                        944482                       # Number of ops (including micro ops) committed
system.cpu.dtb.accesses                             0                       # DTB accesses
system.cpu.dtb.align_faults                         0                       # Number of TLB faults due to alignment restrictions
system.cpu.dtb.domain_faults                        0                       # Number of TLB faults due to domain restrictions
system.cpu.dtb.flush_entries                        0                       # Number of entries that have been flushed from TLB
system.cpu.dtb.flush_tlb                            0                       # Number of times complete TLB was flushed
system.cpu.dtb.flush_tlb_asid                       0                       # Number of times TLB was flushed by ASID
system.cpu.dtb.flush_tlb_mva                        0                       # Number of times TLB was flushed by MVA
system.cpu.dtb.flush_tlb_mva_asid                   0                       # Number of times TLB was flushed by MVA & ASID
system.cpu.dtb.hits                                 0                       # DTB hits
system.cpu.dtb.inst_accesses                        0                       # ITB inst accesses
system.cpu.dtb.inst_hits                            0                       # ITB inst hits
system.cpu.dtb.inst_misses                          0                       # ITB inst misses
system.cpu.dtb.misses                               0                       # DTB misses
system.cpu.dtb.perms_faults                         0                       # Number of TLB faults due to permissions restrictions
system.cpu.dtb.prefetch_faults                      0                       # Number of TLB faults due to prefetch
system.cpu.dtb.read_accesses                        0                       # DTB read accesses
system.cpu.dtb.read_hits                            0                       # DTB read hits
system.cpu.dtb.read_misses                          0                       # DTB read misses
system.cpu.dtb.stage2_mmu.stage2_tlb.accesses            0                       # DTB accesses
system.cpu.dtb.stage2_mmu.stage2_tlb.align_faults            0                       # Number of TLB faults due to alignment restrictions
system.cpu.dtb.stage2_mmu.stage2_tlb.domain_faults            0                       # Number of TLB faults due to domain restrictions
system.cpu.dtb.stage2_mmu.stage2_tlb.flush_entries            0                       # Number of entries that have been flushed from TLB
system.cpu.dtb.stage2_mmu.stage2_tlb.flush_tlb            0                       # Number of times complete TLB was flushed
system.cpu.dtb.stage2_mmu.stage2_tlb.flush_tlb_asid            0                       # Number of times TLB was flushed by ASID
system.cpu.dtb.stage2_mmu.stage2_tlb.flush_tlb_mva            0                       # Number of times TLB was flushed by MVA
system.cpu.dtb.stage2_mmu.stage2_tlb.flush_tlb_mva_asid            0                       # Number of times TLB was flushed by MVA & ASID
system.cpu.dtb.stage2_mmu.stage2_tlb.hits            0                       # DTB hits
system.cpu.dtb.stage2_mmu.stage2_tlb.inst_accesses            0                       # ITB inst accesses
system.cpu.dtb.stage2_mmu.stage2_tlb.inst_hits            0                       # ITB inst hits
system.cpu.dtb.stage2_mmu.stage2_tlb.inst_misses            0                       # ITB inst misses
system.cpu.dtb.stage2_mmu.stage2_tlb.misses            0                       # DTB misses
system.cpu.dtb.stage2_mmu.stage2_tlb.perms_faults            0                       # Number of TLB faults due to permissions restrictions
system.cpu.dtb.stage2_mmu.stage2_tlb.prefetch_faults            0                       # Number of TLB faults due to prefetch
system.cpu.dtb.stage2_mmu.stage2_tlb.read_accesses            0                       # DTB read accesses
system.cpu.dtb.stage2_mmu.stage2_tlb.read_hits            0                       # DTB read hits
system.cpu.dtb.stage2_mmu.stage2_tlb.read_misses            0                       # DTB read misses
system.cpu.dtb.stage2_mmu.stage2_tlb.walker.walkRequestOrigin_Requested::Data            0                       # Table walker requests started/completed, data/inst
system.cpu.dtb.stage2_mmu.stage2_tlb.walker.walkRequestOrigin_Requested::Inst            0                       # Table walker requests started/completed, data/inst
system.cpu.dtb.stage2_mmu.stage2_tlb.walker.walkRequestOrigin_Requested::total            0                       # Table walker requests started/completed, data/inst
system.cpu.dtb.stage2_mmu.stage2_tlb.walker.walkRequestOrigin_Completed::Data            0                       # Table walker requests started/completed, data/inst
system.cpu.dtb.stage2_mmu.stage2_tlb.walker.walkRequestOrigin_Completed::Inst            0                       # Table walker requests started/completed, data/inst
system.cpu.dtb.stage2_mmu.stage2_tlb.walker.walkRequestOrigin_Completed::total            0                       # Table walker requests started/completed, data/inst
system.cpu.dtb.stage2_mmu.stage2_tlb.walker.walkRequestOrigin::total            0                       # Table walker requests started/completed, data/inst
system.cpu.dtb.stage2_mmu.stage2_tlb.walker.walks            0                       # Table walker walks requested
system.cpu.dtb.stage2_mmu.stage2_tlb.write_accesses            0                       # DTB write accesses
system.cpu.dtb.stage2_mmu.stage2_tlb.write_hits            0                       # DTB write hits
system.cpu.dtb.stage2_mmu.stage2_tlb.write_misses            0                       # DTB write misses
system.cpu.dtb.walker.walkRequestOrigin_Requested::Data            0                       # Table walker requests started/completed, data/inst
system.cpu.dtb.walker.walkRequestOrigin_Requested::Inst            0                       # Table walker requests started/completed, data/inst
system.cpu.dtb.walker.walkRequestOrigin_Requested::total            0                       # Table walker requests started/completed, data/inst
system.cpu.dtb.walker.walkRequestOrigin_Completed::Data            0                       # Table walker requests started/completed, data/inst
system.cpu.dtb.walker.walkRequestOrigin_Completed::Inst            0                       # Table walker requests started/completed, data/inst
system.cpu.dtb.walker.walkRequestOrigin_Completed::total            0                       # Table walker requests started/completed, data/inst
system.cpu.dtb.walker.walkRequestOrigin::total            0                       # Table walker requests started/completed, data/inst
system.cpu.dtb.walker.walks                         0                       # Table walker walks requested
system.cpu.dtb.write_accesses                       0                       # DTB write accesses
system.cpu.dtb.write_hits                           0                       # DTB write hits
system.cpu.dtb.write_misses                         0                       # DTB write misses
system.cpu.idle_fraction                     0.000000                       # Percentage of idle cycles
system.cpu.itb.accesses                             0                       # DTB accesses
system.cpu.itb.align_faults                         0                       # Number of TLB faults due to alignment restrictions
system.cpu.itb.domain_faults                        0                       # Number of TLB faults due to domain restrictions
system.cpu.itb.flush_entries                        0                       # Number of entries that have been flushed from TLB
system.cpu.itb.flush_tlb                            0                       # Number of times complete TLB was flushed
system.cpu.itb.flush_tlb_asid                       0                       # Number of times TLB was flushed by ASID
system.cpu.itb.flush_tlb_mva                        0                       # Number of times TLB was flushed by MVA
system.cpu.itb.flush_tlb_mva_asid                   0                       # Number of times TLB was flushed by MVA & ASID
system.cpu.itb.hits                                 0                       # DTB hits
system.cpu.itb.inst_accesses                        0                       # ITB inst accesses
system.cpu.itb.inst_hits                            0                       # ITB inst hits
system.cpu.itb.inst_misses                          0                       # ITB inst misses
system.cpu.itb.misses                               0                       # DTB misses
system.cpu.itb.perms_faults                         0                       # Number of TLB faults due to permissions restrictions
system.cpu.itb.prefetch_faults                      0                       # Number of TLB faults due to prefetch
system.cpu.itb.read_accesses                        0                       # DTB read accesses
system.cpu.itb.read_hits                            0                       # DTB read hits
system.cpu.itb.read_misses                          0                       # DTB read misses
system.cpu.itb.stage2_mmu.stage2_tlb.accesses            0                       # DTB accesses
system.cpu.itb.stage2_mmu.stage2_tlb.align_faults            0                       # Number of TLB faults due to alignment restrictions
system.cpu.itb.stage2_mmu.stage2_tlb.domain_faults            0                       # Number of TLB faults due to domain restrictions
system.cpu.itb.stage2_mmu.stage2_tlb.flush_entries            0                       # Number of entries that have been flushed from TLB
system.cpu.itb.stage2_mmu.stage2_tlb.flush_tlb            0                       # Number of times complete TLB was flushed
system.cpu.itb.stage2_mmu.stage2_tlb.flush_tlb_asid            0                       # Number of times TLB was flushed by ASID
system.cpu.itb.stage2_mmu.stage2_tlb.flush_tlb_mva            0                       # Number of times TLB was flushed by MVA
system.cpu.itb.stage2_mmu.stage2_tlb.flush_tlb_mva_asid            0                       # Number of times TLB was flushed by MVA & ASID
system.cpu.itb.stage2_mmu.stage2_tlb.hits            0                       # DTB hits
system.cpu.itb.stage2_mmu.stage2_tlb.inst_accesses            0                       # ITB inst accesses
system.cpu.itb.stage2_mmu.stage2_tlb.inst_hits            0                       # ITB inst hits
system.cpu.itb.stage2_mmu.stage2_tlb.inst_misses            0                       # ITB inst misses
system.cpu.itb.stage2_mmu.stage2_tlb.misses            0                       # DTB misses
system.cpu.itb.stage2_mmu.stage2_tlb.perms_faults            0                       # Number of TLB faults due to permissions restrictions
system.cpu.itb.stage2_mmu.stage2_tlb.prefetch_faults            0                       # Number of TLB faults due to prefetch
system.cpu.itb.stage2_mmu.stage2_tlb.read_accesses            0                       # DTB read accesses
system.cpu.itb.stage2_mmu.stage2_tlb.read_hits            0                       # DTB read hits
system.cpu.itb.stage2_mmu.stage2_tlb.read_misses            0                       # DTB read misses
system.cpu.itb.stage2_mmu.stage2_tlb.walker.walkRequestOrigin_Requested::Data            0                       # Table walker requests started/completed, data/inst
system.cpu.itb.stage2_mmu.stage2_tlb.walker.walkRequestOrigin_Requested::Inst            0                       # Table walker requests started/completed, data/inst
system.cpu.itb.stage2_mmu.stage2_tlb.walker.walkRequestOrigin_Requested::total            0                       # Table walker requests started/completed, data/inst
system.cpu.itb.stage2_mmu.stage2_tlb.walker.walkRequestOrigin_Completed::Data            0                       # Table walker requests started/completed, data/inst
system.cpu.itb.stage2_mmu.stage2_tlb.walker.walkRequestOrigin_Completed::Inst            0                       # Table walker requests started/completed, data/inst
system.cpu.itb.stage2_mmu.stage2_tlb.walker.walkRequestOrigin_Completed::total            0                       # Table walker requests started/completed, data/inst
system.cpu.itb.stage2_mmu.stage2_tlb.walker.walkRequestOrigin::total            0                       # Table walker requests started/completed, data/inst
system.cpu.itb.stage2_mmu.stage2_tlb.walker.walks            0                       # Table walker walks requested
system.cpu.itb.stage2_mmu.stage2_tlb.write_accesses            0                       # DTB write accesses
system.cpu.itb.stage2_mmu.stage2_tlb.write_hits            0                       # DTB write hits
system.cpu.itb.stage2_mmu.stage2_tlb.write_misses            0                       # DTB write misses
system.cpu.itb.walker.walkRequestOrigin_Requested::Data            0                       # Table walker requests started/completed, data/inst
system.cpu.itb.walker.walkRequestOrigin_Requested::Inst            0                       # Table walker requests started/completed, data/inst
system.cpu.itb.walker.walkRequestOrigin_Requested::total            0                       # Table walker requests started/completed, data/inst
system.cpu.itb.walker.walkRequestOrigin_Completed::Data            0                       # Table walker requests started/completed, data/inst
system.cpu.itb.walker.walkRequestOrigin_Completed::Inst            0                       # Table walker requests started/completed, data/inst
system.cpu.itb.walker.walkRequestOrigin_Completed::total            0                       # Table walker requests started/completed, data/inst
system.cpu.itb.walker.walkRequestOrigin::total            0                       # Table walker requests started/completed, data/inst
system.cpu.itb.walker.walks                         0                       # Table walker walks requested
system.cpu.itb.write_accesses                       0                       # DTB write accesses
system.cpu.itb.write_hits                           0                       # DTB write hits
system.cpu.itb.write_misses                         0                       # DTB write misses
system.cpu.not_idle_fraction                 1.000000                       # Percentage of non-idle cycles
system.cpu.numCycles                          2235278                       # number of cpu cycles simulated
system.cpu.numWorkItemsCompleted                    0                       # number of work items this cpu completed
system.cpu.numWorkItemsStarted                      0                       # number of work items this cpu started
system.cpu.num_busy_cycles               2235277.998000                       # Number of busy cycles
system.cpu.num_cc_register_reads              3356507                       # number of times the CC registers were read
system.cpu.num_cc_register_writes              453435                       # number of times the CC registers were written
system.cpu.num_conditional_control_insts        67257                       # number of instructions that are conditional controls
system.cpu.num_fp_alu_accesses                      0                       # Number of float alu accesses
system.cpu.num_fp_insts                             0                       # number of float instructions
system.cpu.num_fp_register_reads                    0                       # number of times the floating registers were read
system.cpu.num_fp_register_writes                   0                       # number of times the floating registers were written
system.cpu.num_func_calls                       71846                       # number of times a function call or return occured
system.cpu.num_idle_cycles                   0.002000                       # Number of idle cycles
system.cpu.num_int_alu_accesses                859255                       # Number of integer alu accesses
system.cpu.num_int_insts                       859255                       # number of integer instructions
system.cpu.num_int_register_reads             1291315                       # number of times the integer registers were read
system.cpu.num_int_register_writes             646463                       # number of times the integer registers were written
system.cpu.num_load_insts                      174468                       # Number of load instructions
system.cpu.num_mem_refs                        320239                       # number of memory refs
system.cpu.num_store_insts                     145771                       # Number of store instructions
system.cpu.num_vec_alu_accesses                     0                       # Number of vector alu accesses
system.cpu.num_vec_insts                            0                       # number of vector instructions
system.cpu.num_vec_register_reads                  40                       # number of times the vector registers were read
system.cpu.num_vec_register_writes                 13                       # number of times the vector registers were written
system.cpu.op_class::No_OpClass                     0      0.00%      0.00% # Class of executed instruction
system.cpu.op_class::IntAlu                    624345     66.08%     66.08% # Class of executed instruction
system.cpu.op_class::IntMult                      159      0.02%     66.10% # Class of executed instruction
system.cpu.op_class::IntDiv                         0      0.00%     66.10% # Class of executed instruction
system.cpu.op_class::FloatAdd                       0      0.00%     66.10% # Class of executed instruction
system.cpu.op_class::FloatCmp                       0      0.00%     66.10% # Class of executed instruction
system.cpu.op_class::FloatCvt                       0      0.00%     66.10% # Class of executed instruction
system.cpu.op_class::FloatMult                      0      0.00%     66.10% # Class of executed instruction
system.cpu.op_class::FloatMultAcc                   0      0.00%     66.10% # Class of executed instruction
system.cpu.op_class::FloatDiv                       0      0.00%     66.10% # Class of executed instruction
system.cpu.op_class::FloatMisc                      0      0.00%     66.10% # Class of executed instruction
system.cpu.op_class::FloatSqrt                      0      0.00%     66.10% # Class of executed instruction
system.cpu.op_class::SimdAdd                        0      0.00%     66.10% # Class of executed instruction
system.cpu.op_class::SimdAddAcc                     0      0.00%     66.10% # Class of executed instruction
system.cpu.op_class::SimdAlu                        0      0.00%     66.10% # Class of executed instruction
system.cpu.op_class::SimdCmp                        0      0.00%     66.10% # Class of executed instruction
system.cpu.op_class::SimdCvt                        0      0.00%     66.10% # Class of executed instruction
system.cpu.op_class::SimdMisc                       0      0.00%     66.10% # Class of executed instruction
system.cpu.op_class::SimdMult                       0      0.00%     66.10% # Class of executed instruction
system.cpu.op_class::SimdMultAcc                    0      0.00%     66.10% # Class of executed instruction
system.cpu.op_class::SimdShift                      0      0.00%     66.10% # Class of executed instruction
system.cpu.op_class::SimdShiftAcc                   0      0.00%     66.10% # Class of executed instruction
system.cpu.op_class::SimdDiv                        0      0.00%     66.10% # Class of executed instruction
system.cpu.op_class::SimdSqrt                       0      0.00%     66.10% # Class of executed instruction
system.cpu.op_class::SimdFloatAdd                   0      0.00%     66.10% # Class of executed instruction
system.cpu.op_class::SimdFloatAlu                   0      0.00%     66.10% # Class of executed instruction
system.cpu.op_class::SimdFloatCmp                   0      0.00%     66.10% # Class of executed instruction
system.cpu.op_class::SimdFloatCvt                   0      0.00%     66.10% # Class of executed instruction
system.cpu.op_class::SimdFloatDiv                   0      0.00%     66.10% # Class of executed instruction
system.cpu.op_class::SimdFloatMisc                 21      0.00%     66.10% # Class of executed instruction
system.cpu.op_class::SimdFloatMult                  0      0.00%     66.10% # Class of executed instruction
system.cpu.op_class::SimdFloatMultAcc               0      0.00%     66.10% # Class of executed instruction
system.cpu.op_class::SimdFloatSqrt                  0      0.00%     66.10% # Class of executed instruction
system.cpu.op_class::SimdReduceAdd                  0      0.00%     66.10% # Class of executed instruction
system.cpu.op_class::SimdReduceAlu                  0      0.00%     66.10% # Class of executed instruction
system.cpu.op_class::SimdReduceCmp                  0      0.00%     66.10% # Class of executed instruction
system.cpu.op_class::SimdFloatReduceAdd             0      0.00%     66.10% # Class of executed instruction
system.cpu.op_class::SimdFloatReduceCmp             0      0.00%     66.10% # Class of executed instruction
system.cpu.op_class::SimdAes                        0      0.00%     66.10% # Class of executed instruction
system.cpu.op_class::SimdAesMix                     0      0.00%     66.10% # Class of executed instruction
system.cpu.op_class::SimdSha1Hash                   0      0.00%     66.10% # Class of executed instruction
system.cpu.op_class::SimdSha1Hash2                  0      0.00%     66.10% # Class of executed instruction
system.cpu.op_class::SimdSha256Hash                 0      0.00%     66.10% # Class of executed instruction
system.cpu.op_class::SimdSha256Hash2                0      0.00%     66.10% # Class of executed instruction
system.cpu.op_class::SimdShaSigma2                  0      0.00%     66.10% # Class of executed instruction
system.cpu.op_class::SimdShaSigma3                  0      0.00%     66.10% # Class of executed instruction
system.cpu.op_class::SimdPredAlu                    0      0.00%     66.10% # Class of executed instruction
system.cpu.op_class::MemRead                   174468     18.47%     84.57% # Class of executed instruction
system.cpu.op_class::MemWrite                  145771     15.43%    100.00% # Class of executed instruction
system.cpu.op_class::FloatMemRead                   0      0.00%    100.00% # Class of executed instruction
system.cpu.op_class::FloatMemWrite                  0      0.00%    100.00% # Class of executed instruction
system.cpu.op_class::IprAccess                      0      0.00%    100.00% # Class of executed instruction
system.cpu.op_class::InstPrefetch                   0      0.00%    100.00% # Class of executed instruction
system.cpu.op_class::total                     944764                       # Class of executed instruction
system.cpu.workload.numSyscalls                    29                       # Number of system calls
system.membus.snoop_filter.hit_multi_requests            2                       # Number of requests hitting in the snoop filter with multiple (>1) holders of the requested data.
system.membus.snoop_filter.hit_multi_snoops            0                       # Number of snoops hitting in the snoop filter with multiple (>1) holders of the requested data.
system.membus.snoop_filter.hit_single_requests          146                       # Number of requests hitting in the snoop filter with a single holder of the requested data.
system.membus.snoop_filter.hit_single_snoops            0                       # Number of snoops hitting in the snoop filter with a single holder of the requested data.
system.membus.snoop_filter.tot_requests           687                       # Total number of requests made to the snoop filter.
system.membus.snoop_filter.tot_snoops               0                       # Total number of snoops made to the snoop filter.
system.membus.pwrStateResidencyTicks::UNDEFINED   1117639000                       # Cumulative time (in ticks) in various power states
system.membus.trans_dist::ReadResp                485                       # Transaction distribution
system.membus.trans_dist::WritebackClean          133                       # Transaction distribution
system.membus.trans_dist::ReadExReq                69                       # Transaction distribution
system.membus.trans_dist::ReadExResp               69                       # Transaction distribution
system.membus.trans_dist::ReadCleanReq            386                       # Transaction distribution
system.membus.trans_dist::ReadSharedReq            99                       # Transaction distribution
system.membus.pkt_count_system.cpu.icache.mem_side::system.mem_ctrls.port          905                       # Packet count per connected master and slave (bytes)
system.membus.pkt_count_system.cpu.dcache.mem_side::system.mem_ctrls.port          336                       # Packet count per connected master and slave (bytes)
system.membus.pkt_count::total                   1241                       # Packet count per connected master and slave (bytes)
system.membus.pkt_size_system.cpu.icache.mem_side::system.mem_ctrls.port        33216                       # Cumulative packet size per connected master and slave (bytes)
system.membus.pkt_size_system.cpu.dcache.mem_side::system.mem_ctrls.port        10752                       # Cumulative packet size per connected master and slave (bytes)
system.membus.pkt_size::total                   43968                       # Cumulative packet size per connected master and slave (bytes)
system.membus.snoops                                0                       # Total snoops (count)
system.membus.snoopTraffic                          0                       # Total snoop traffic (bytes)
system.membus.snoop_fanout::samples               554                       # Request fanout histogram
system.membus.snoop_fanout::mean             0.027076                       # Request fanout histogram
system.membus.snoop_fanout::stdev            0.162451                       # Request fanout histogram
system.membus.snoop_fanout::underflows              0      0.00%      0.00% # Request fanout histogram
system.membus.snoop_fanout::0                     539     97.29%     97.29% # Request fanout histogram
system.membus.snoop_fanout::1                      15      2.71%    100.00% # Request fanout histogram
system.membus.snoop_fanout::2                       0      0.00%    100.00% # Request fanout histogram
system.membus.snoop_fanout::overflows               0      0.00%    100.00% # Request fanout histogram
system.membus.snoop_fanout::min_value               0                       # Request fanout histogram
system.membus.snoop_fanout::max_value               1                       # Request fanout histogram
system.membus.snoop_fanout::total                 554                       # Request fanout histogram
system.membus.reqLayer0.occupancy             1222000                       # Layer occupancy (ticks)
system.membus.reqLayer0.utilization               0.1                       # Layer utilization (%)
system.membus.respLayer1.occupancy            2023250                       # Layer occupancy (ticks)
system.membus.respLayer1.utilization              0.2                       # Layer utilization (%)
system.membus.respLayer2.occupancy             894750                       # Layer occupancy (ticks)
system.membus.respLayer2.utilization              0.1                       # Layer utilization (%)
system.voltage_domain.voltage                       1                       # Voltage in Volts
system.clk_domain.clock                          1000                       # Clock period in ticks
system.cpu_voltage_domain.voltage                   1                       # Voltage in Volts
system.mem_ctrls.pwrStateResidencyTicks::UNDEFINED   1117639000                       # Cumulative time (in ticks) in various power states
system.mem_ctrls.bytes_read::.cpu.inst          24704                       # Number of bytes read from this memory
system.mem_ctrls.bytes_read::.cpu.data          10752                       # Number of bytes read from this memory
system.mem_ctrls.bytes_read::total              35456                       # Number of bytes read from this memory
system.mem_ctrls.bytes_inst_read::.cpu.inst        24704                       # Number of instructions bytes read from this memory
system.mem_ctrls.bytes_inst_read::total         24704                       # Number of instructions bytes read from this memory
system.mem_ctrls.num_reads::.cpu.inst             386                       # Number of read requests responded to by this memory
system.mem_ctrls.num_reads::.cpu.data             168                       # Number of read requests responded to by this memory
system.mem_ctrls.num_reads::total                 554                       # Number of read requests responded to by this memory
system.mem_ctrls.bw_read::.cpu.inst          22103738                       # Total read bandwidth from this memory (bytes/s)
system.mem_ctrls.bw_read::.cpu.data           9620280                       # Total read bandwidth from this memory (bytes/s)
system.mem_ctrls.bw_read::total              31724018                       # Total read bandwidth from this memory (bytes/s)
system.mem_ctrls.bw_inst_read::.cpu.inst     22103738                       # Instruction read bandwidth from this memory (bytes/s)
system.mem_ctrls.bw_inst_read::total         22103738                       # Instruction read bandwidth from this memory (bytes/s)
system.mem_ctrls.bw_total::.cpu.inst         22103738                       # Total bandwidth to/from this memory (bytes/s)
system.mem_ctrls.bw_total::.cpu.data          9620280                       # Total bandwidth to/from this memory (bytes/s)
system.mem_ctrls.bw_total::total             31724018                       # Total bandwidth to/from this memory (bytes/s)
system.mem_ctrls.avgPriority_.writebacks::samples        38.00                       # Average QoS priority value for accepted requests
system.mem_ctrls.avgPriority_.cpu.inst::samples       286.00                       # Average QoS priority value for accepted requests
system.mem_ctrls.avgPriority_.cpu.data::samples       166.00                       # Average QoS priority value for accepted requests
system.mem_ctrls.priorityMinLatency      0.000000018750                       # per QoS priority minimum request to response latency (s)
system.mem_ctrls.priorityMaxLatency      0.002201498750                       # per QoS priority maximum request to response latency (s)
system.mem_ctrls.numReadWriteTurnArounds            1                       # Number of turnarounds from READ to WRITE
system.mem_ctrls.numWriteReadTurnArounds            1                       # Number of turnarounds from WRITE to READ
system.mem_ctrls.numStayReadState                1321                       # Number of times bus staying in READ state
system.mem_ctrls.numStayWriteState                 17                       # Number of times bus staying in WRITE state
system.mem_ctrls.readReqs                         554                       # Number of read requests accepted
system.mem_ctrls.writeReqs                        131                       # Number of write requests accepted
system.mem_ctrls.readBursts                       554                       # Number of DRAM read bursts, including those serviced by the write queue
system.mem_ctrls.writeBursts                      131                       # Number of DRAM write bursts, including those merged in the write queue
system.mem_ctrls.servicedByWrQ                    102                       # Number of DRAM read bursts serviced by the write queue
system.mem_ctrls.mergedWrBursts                    93                       # Number of DRAM write bursts merged with an existing one
system.mem_ctrls.neitherReadNorWriteReqs            0                       # Number of requests that are neither read nor write
system.mem_ctrls.perBankRdBursts::0                44                       # Per bank write bursts
system.mem_ctrls.perBankRdBursts::1                 1                       # Per bank write bursts
system.mem_ctrls.perBankRdBursts::2                20                       # Per bank write bursts
system.mem_ctrls.perBankRdBursts::3                32                       # Per bank write bursts
system.mem_ctrls.perBankRdBursts::4                 8                       # Per bank write bursts
system.mem_ctrls.perBankRdBursts::5                24                       # Per bank write bursts
system.mem_ctrls.perBankRdBursts::6                35                       # Per bank write bursts
system.mem_ctrls.perBankRdBursts::7                38                       # Per bank write bursts
system.mem_ctrls.perBankRdBursts::8                99                       # Per bank write bursts
system.mem_ctrls.perBankRdBursts::9                58                       # Per bank write bursts
system.mem_ctrls.perBankRdBursts::10               22                       # Per bank write bursts
system.mem_ctrls.perBankRdBursts::11               50                       # Per bank write bursts
system.mem_ctrls.perBankRdBursts::12                8                       # Per bank write bursts
system.mem_ctrls.perBankRdBursts::13                7                       # Per bank write bursts
system.mem_ctrls.perBankRdBursts::14                6                       # Per bank write bursts
system.mem_ctrls.perBankRdBursts::15                0                       # Per bank write bursts
system.mem_ctrls.perBankWrBursts::0                 6                       # Per bank write bursts
system.mem_ctrls.perBankWrBursts::1                 0                       # Per bank write bursts
system.mem_ctrls.perBankWrBursts::2                 0                       # Per bank write bursts
system.mem_ctrls.perBankWrBursts::3                 1                       # Per bank write bursts
system.mem_ctrls.perBankWrBursts::4                 0                       # Per bank write bursts
system.mem_ctrls.perBankWrBursts::5                 2                       # Per bank write bursts
system.mem_ctrls.perBankWrBursts::6                 0                       # Per bank write bursts
system.mem_ctrls.perBankWrBursts::7                 6                       # Per bank write bursts
system.mem_ctrls.perBankWrBursts::8                 0                       # Per bank write bursts
system.mem_ctrls.perBankWrBursts::9                 0                       # Per bank write bursts
system.mem_ctrls.perBankWrBursts::10                0                       # Per bank write bursts
system.mem_ctrls.perBankWrBursts::11                3                       # Per bank write bursts
system.mem_ctrls.perBankWrBursts::12                0                       # Per bank write bursts
system.mem_ctrls.perBankWrBursts::13                0                       # Per bank write bursts
system.mem_ctrls.perBankWrBursts::14                0                       # Per bank write bursts
system.mem_ctrls.perBankWrBursts::15                0                       # Per bank write bursts
system.mem_ctrls.avgRdQLen                       1.00                       # Average read queue length when enqueuing
system.mem_ctrls.avgWrQLen                      27.28                       # Average write queue length when enqueuing
system.mem_ctrls.totQLat                      2893500                       # Total ticks spent queuing
system.mem_ctrls.totBusLat                    2260000                       # Total ticks spent in databus transfers
system.mem_ctrls.totMemAccLat                11368500                       # Total ticks spent from burst creation until serviced by the DRAM
system.mem_ctrls.avgQLat                      6401.55                       # Average queueing delay per DRAM burst
system.mem_ctrls.avgBusLat                    5000.00                       # Average bus latency per DRAM burst
system.mem_ctrls.avgMemAccLat                25151.55                       # Average memory access latency per DRAM burst
system.mem_ctrls.numRdRetry                         0                       # Number of times read queue was full causing retry
system.mem_ctrls.numWrRetry                         0                       # Number of times write queue was full causing retry
system.mem_ctrls.readRowHits                      349                       # Number of row buffer hits during reads
system.mem_ctrls.writeRowHits                      14                       # Number of row buffer hits during writes
system.mem_ctrls.readRowHitRate                 77.21                       # Row buffer hit rate for reads
system.mem_ctrls.writeRowHitRate                36.84                       # Row buffer hit rate for writes
system.mem_ctrls.readPktSize::0                     0                       # Read request sizes (log2)
system.mem_ctrls.readPktSize::1                     0                       # Read request sizes (log2)
system.mem_ctrls.readPktSize::2                     0                       # Read request sizes (log2)
system.mem_ctrls.readPktSize::3                     0                       # Read request sizes (log2)
system.mem_ctrls.readPktSize::4                     0                       # Read request sizes (log2)
system.mem_ctrls.readPktSize::5                     0                       # Read request sizes (log2)
system.mem_ctrls.readPktSize::6                   554                       # Read request sizes (log2)
system.mem_ctrls.writePktSize::0                    0                       # Write request sizes (log2)
system.mem_ctrls.writePktSize::1                    0                       # Write request sizes (log2)
system.mem_ctrls.writePktSize::2                    0                       # Write request sizes (log2)
system.mem_ctrls.writePktSize::3                    0                       # Write request sizes (log2)
system.mem_ctrls.writePktSize::4                    0                       # Write request sizes (log2)
system.mem_ctrls.writePktSize::5                    0                       # Write request sizes (log2)
system.mem_ctrls.writePktSize::6                  131                       # Write request sizes (log2)
system.mem_ctrls.rdQLenPdf::0                     450                       # What read queue length does an incoming req see
system.mem_ctrls.rdQLenPdf::1                       2                       # What read queue length does an incoming req see
system.mem_ctrls.rdQLenPdf::2                       0                       # What read queue length does an incoming req see
system.mem_ctrls.rdQLenPdf::3                       0                       # What read queue length does an incoming req see
system.mem_ctrls.rdQLenPdf::4                       0                       # What read queue length does an incoming req see
system.mem_ctrls.rdQLenPdf::5                       0                       # What read queue length does an incoming req see
system.mem_ctrls.rdQLenPdf::6                       0                       # What read queue length does an incoming req see
system.mem_ctrls.rdQLenPdf::7                       0                       # What read queue length does an incoming req see
system.mem_ctrls.rdQLenPdf::8                       0                       # What read queue length does an incoming req see
system.mem_ctrls.rdQLenPdf::9                       0                       # What read queue length does an incoming req see
system.mem_ctrls.rdQLenPdf::10                      0                       # What read queue length does an incoming req see
system.mem_ctrls.rdQLenPdf::11                      0                       # What read queue length does an incoming req see
system.mem_ctrls.rdQLenPdf::12                      0                       # What read queue length does an incoming req see
system.mem_ctrls.rdQLenPdf::13                      0                       # What read queue length does an incoming req see
system.mem_ctrls.rdQLenPdf::14                      0                       # What read queue length does an incoming req see
system.mem_ctrls.rdQLenPdf::15                      0                       # What read queue length does an incoming req see
system.mem_ctrls.rdQLenPdf::16                      0                       # What read queue length does an incoming req see
system.mem_ctrls.rdQLenPdf::17                      0                       # What read queue length does an incoming req see
system.mem_ctrls.rdQLenPdf::18                      0                       # What read queue length does an incoming req see
system.mem_ctrls.rdQLenPdf::19                      0                       # What read queue length does an incoming req see
system.mem_ctrls.rdQLenPdf::20                      0                       # What read queue length does an incoming req see
system.mem_ctrls.rdQLenPdf::21                      0                       # What read queue length does an incoming req see
system.mem_ctrls.rdQLenPdf::22                      0                       # What read queue length does an incoming req see
system.mem_ctrls.rdQLenPdf::23                      0                       # What read queue length does an incoming req see
system.mem_ctrls.rdQLenPdf::24                      0                       # What read queue length does an incoming req see
system.mem_ctrls.rdQLenPdf::25                      0                       # What read queue length does an incoming req see
system.mem_ctrls.rdQLenPdf::26                      0                       # What read queue length does an incoming req see
system.mem_ctrls.rdQLenPdf::27                      0                       # What read queue length does an incoming req see
system.mem_ctrls.rdQLenPdf::28                      0                       # What read queue length does an incoming req see
system.mem_ctrls.rdQLenPdf::29                      0                       # What read queue length does an incoming req see
system.mem_ctrls.rdQLenPdf::30                      0                       # What read queue length does an incoming req see
system.mem_ctrls.rdQLenPdf::31                      0                       # What read queue length does an incoming req see
system.mem_ctrls.wrQLenPdf::0                       1                       # What write queue length does an incoming req see
system.mem_ctrls.wrQLenPdf::1                       1                       # What write queue length does an incoming req see
system.mem_ctrls.wrQLenPdf::2                       1                       # What write queue length does an incoming req see
system.mem_ctrls.wrQLenPdf::3                       1                       # What write queue length does an incoming req see
system.mem_ctrls.wrQLenPdf::4                       1                       # What write queue length does an incoming req see
system.mem_ctrls.wrQLenPdf::5                       1                       # What write queue length does an incoming req see
system.mem_ctrls.wrQLenPdf::6                       1                       # What write queue length does an incoming req see
system.mem_ctrls.wrQLenPdf::7                       1                       # What write queue length does an incoming req see
system.mem_ctrls.wrQLenPdf::8                       1                       # What write queue length does an incoming req see
system.mem_ctrls.wrQLenPdf::9                       1                       # What write queue length does an incoming req see
system.mem_ctrls.wrQLenPdf::10                      1                       # What write queue length does an incoming req see
system.mem_ctrls.wrQLenPdf::11                      1                       # What write queue length does an incoming req see
system.mem_ctrls.wrQLenPdf::12                      1                       # What write queue length does an incoming req see
system.mem_ctrls.wrQLenPdf::13                      1                       # What write queue length does an incoming req see
system.mem_ctrls.wrQLenPdf::14                      1                       # What write queue length does an incoming req see
system.mem_ctrls.wrQLenPdf::15                      2                       # What write queue length does an incoming req see
system.mem_ctrls.wrQLenPdf::16                      2                       # What write queue length does an incoming req see
system.mem_ctrls.wrQLenPdf::17                      2                       # What write queue length does an incoming req see
system.mem_ctrls.wrQLenPdf::18                      2                       # What write queue length does an incoming req see
system.mem_ctrls.wrQLenPdf::19                      2                       # What write queue length does an incoming req see
system.mem_ctrls.wrQLenPdf::20                      1                       # What write queue length does an incoming req see
system.mem_ctrls.wrQLenPdf::21                      1                       # What write queue length does an incoming req see
system.mem_ctrls.wrQLenPdf::22                      1                       # What write queue length does an incoming req see
system.mem_ctrls.wrQLenPdf::23                      1                       # What write queue length does an incoming req see
system.mem_ctrls.wrQLenPdf::24                      1                       # What write queue length does an incoming req see
system.mem_ctrls.wrQLenPdf::25                      1                       # What write queue length does an incoming req see
system.mem_ctrls.wrQLenPdf::26                      1                       # What write queue length does an incoming req see
system.mem_ctrls.wrQLenPdf::27                      1                       # What write queue length does an incoming req see
system.mem_ctrls.wrQLenPdf::28                      1                       # What write queue length does an incoming req see
system.mem_ctrls.wrQLenPdf::29                      1                       # What write queue length does an incoming req see
system.mem_ctrls.wrQLenPdf::30                      1                       # What write queue length does an incoming req see
system.mem_ctrls.wrQLenPdf::31                      1                       # What write queue length does an incoming req see
system.mem_ctrls.wrQLenPdf::32                      1                       # What write queue length does an incoming req see
system.mem_ctrls.wrQLenPdf::33                      0                       # What write queue length does an incoming req see
system.mem_ctrls.wrQLenPdf::34                      0                       # What write queue length does an incoming req see
system.mem_ctrls.wrQLenPdf::35                      0                       # What write queue length does an incoming req see
system.mem_ctrls.wrQLenPdf::36                      0                       # What write queue length does an incoming req see
system.mem_ctrls.wrQLenPdf::37                      0                       # What write queue length does an incoming req see
system.mem_ctrls.wrQLenPdf::38                      0                       # What write queue length does an incoming req see
system.mem_ctrls.wrQLenPdf::39                      0                       # What write queue length does an incoming req see
system.mem_ctrls.wrQLenPdf::40                      0                       # What write queue length does an incoming req see
system.mem_ctrls.wrQLenPdf::41                      0                       # What write queue length does an incoming req see
system.mem_ctrls.wrQLenPdf::42                      0                       # What write queue length does an incoming req see
system.mem_ctrls.wrQLenPdf::43                      0                       # What write queue length does an incoming req see
system.mem_ctrls.wrQLenPdf::44                      0                       # What write queue length does an incoming req see
system.mem_ctrls.wrQLenPdf::45                      0                       # What write queue length does an incoming req see
system.mem_ctrls.wrQLenPdf::46                      0                       # What write queue length does an incoming req see
system.mem_ctrls.wrQLenPdf::47                      0                       # What write queue length does an incoming req see
system.mem_ctrls.wrQLenPdf::48                      0                       # What write queue length does an incoming req see
system.mem_ctrls.wrQLenPdf::49                      0                       # What write queue length does an incoming req see
system.mem_ctrls.wrQLenPdf::50                      0                       # What write queue length does an incoming req see
system.mem_ctrls.wrQLenPdf::51                      0                       # What write queue length does an incoming req see
system.mem_ctrls.wrQLenPdf::52                      0                       # What write queue length does an incoming req see
system.mem_ctrls.wrQLenPdf::53                      0                       # What write queue length does an incoming req see
system.mem_ctrls.wrQLenPdf::54                      0                       # What write queue length does an incoming req see
system.mem_ctrls.wrQLenPdf::55                      0                       # What write queue length does an incoming req see
system.mem_ctrls.wrQLenPdf::56                      0                       # What write queue length does an incoming req see
system.mem_ctrls.wrQLenPdf::57                      0                       # What write queue length does an incoming req see
system.mem_ctrls.wrQLenPdf::58                      0                       # What write queue length does an incoming req see
system.mem_ctrls.wrQLenPdf::59                      0                       # What write queue length does an incoming req see
system.mem_ctrls.wrQLenPdf::60                      0                       # What write queue length does an incoming req see
system.mem_ctrls.wrQLenPdf::61                      0                       # What write queue length does an incoming req see
system.mem_ctrls.wrQLenPdf::62                      0                       # What write queue length does an incoming req see
system.mem_ctrls.wrQLenPdf::63                      0                       # What write queue length does an incoming req see
system.mem_ctrls.bytesPerActivate::samples           95                       # Bytes accessed per row activation
system.mem_ctrls.bytesPerActivate::mean    289.684211                       # Bytes accessed per row activation
system.mem_ctrls.bytesPerActivate::gmean   189.254318                       # Bytes accessed per row activation
system.mem_ctrls.bytesPerActivate::stdev   284.972013                       # Bytes accessed per row activation
system.mem_ctrls.bytesPerActivate::0-127           27     28.42%     28.42% # Bytes accessed per row activation
system.mem_ctrls.bytesPerActivate::128-255           29     30.53%     58.95% # Bytes accessed per row activation
system.mem_ctrls.bytesPerActivate::256-383           15     15.79%     74.74% # Bytes accessed per row activation
system.mem_ctrls.bytesPerActivate::384-511            6      6.32%     81.05% # Bytes accessed per row activation
system.mem_ctrls.bytesPerActivate::512-639            2      2.11%     83.16% # Bytes accessed per row activation
system.mem_ctrls.bytesPerActivate::640-767            5      5.26%     88.42% # Bytes accessed per row activation
system.mem_ctrls.bytesPerActivate::768-895            3      3.16%     91.58% # Bytes accessed per row activation
system.mem_ctrls.bytesPerActivate::896-1023            2      2.11%     93.68% # Bytes accessed per row activation
system.mem_ctrls.bytesPerActivate::1024-1151            6      6.32%    100.00% # Bytes accessed per row activation
system.mem_ctrls.bytesPerActivate::total           95                       # Bytes accessed per row activation
system.mem_ctrls.rdPerTurnAround::samples            1                       # Reads before turning the bus around for writes
system.mem_ctrls.rdPerTurnAround::mean            417                       # Reads before turning the bus around for writes
system.mem_ctrls.rdPerTurnAround::gmean           417                       # Reads before turning the bus around for writes
system.mem_ctrls.rdPerTurnAround::stdev           nan                       # Reads before turning the bus around for writes
system.mem_ctrls.rdPerTurnAround::416-431            1    100.00%    100.00% # Reads before turning the bus around for writes
system.mem_ctrls.rdPerTurnAround::total             1                       # Reads before turning the bus around for writes
system.mem_ctrls.wrPerTurnAround::samples            1                       # Writes before turning the bus around for reads
system.mem_ctrls.wrPerTurnAround::mean             18                       # Writes before turning the bus around for reads
system.mem_ctrls.wrPerTurnAround::gmean     18.000000                       # Writes before turning the bus around for reads
system.mem_ctrls.wrPerTurnAround::stdev           nan                       # Writes before turning the bus around for reads
system.mem_ctrls.wrPerTurnAround::18                1    100.00%    100.00% # Writes before turning the bus around for reads
system.mem_ctrls.wrPerTurnAround::total             1                       # Writes before turning the bus around for reads
system.mem_ctrls.bytesReadDRAM                  28928                       # Total number of bytes read from DRAM
system.mem_ctrls.bytesReadWrQ                    6528                       # Total number of bytes read from write queue
system.mem_ctrls.bytesWritten                    1152                       # Total number of bytes written to DRAM
system.mem_ctrls.bytesReadSys                   35456                       # Total read bytes from the system interface side
system.mem_ctrls.bytesWrittenSys                 8384                       # Total written bytes from the system interface side
system.mem_ctrls.avgRdBW                        25.88                       # Average DRAM read bandwidth in MiByte/s
system.mem_ctrls.avgWrBW                         1.03                       # Average achieved write bandwidth in MiByte/s
system.mem_ctrls.avgRdBWSys                     31.72                       # Average system read bandwidth in MiByte/s
system.mem_ctrls.avgWrBWSys                      7.50                       # Average system write bandwidth in MiByte/s
system.mem_ctrls.peakBW                      12800.00                       # Theoretical peak bandwidth in MiByte/s
system.mem_ctrls.busUtil                         0.21                       # Data bus utilization in percentage
system.mem_ctrls.busUtilRead                     0.20                       # Data bus utilization in percentage for reads
system.mem_ctrls.busUtilWrite                    0.01                       # Data bus utilization in percentage for writes
system.mem_ctrls.totGap                    1117560500                       # Total gap between requests
system.mem_ctrls.avgGap                    1631475.18                       # Average gap between requests
system.mem_ctrls.masterReadBytes::.cpu.inst        18304                       # Per-master bytes read from memory
system.mem_ctrls.masterReadBytes::.cpu.data        10624                       # Per-master bytes read from memory
system.mem_ctrls.masterWriteBytes::.writebacks         1152                       # Per-master bytes write to memory
system.mem_ctrls.masterReadRate::.cpu.inst 16377381.247433206066                       # Per-master bytes read from memory rate (Bytes/sec)
system.mem_ctrls.masterReadRate::.cpu.data 9505752.752006685361                       # Per-master bytes read from memory rate (Bytes/sec)
system.mem_ctrls.masterWriteRate::.writebacks 1030744.274313978036                       # Per-master bytes write to memory rate (Bytes/sec)
system.mem_ctrls.masterReadAccesses::.cpu.inst          386                       # Per-master read serviced memory accesses
system.mem_ctrls.masterReadAccesses::.cpu.data          168                       # Per-master read serviced memory accesses
system.mem_ctrls.masterWriteAccesses::.writebacks          131                       # Per-master write serviced memory accesses
system.mem_ctrls.masterReadTotalLat::.cpu.inst      7495750                       # Per-master read total memory access latency
system.mem_ctrls.masterReadTotalLat::.cpu.data      3872750                       # Per-master read total memory access latency
system.mem_ctrls.masterWriteTotalLat::.writebacks  18487821000                       # Per-master write total memory access latency
system.mem_ctrls.masterReadAvgLat::.cpu.inst     19419.04                       # Per-master read average memory access latency
system.mem_ctrls.masterReadAvgLat::.cpu.data     23052.08                       # Per-master read average memory access latency
system.mem_ctrls.masterWriteAvgLat::.writebacks 141128404.58                       # Per-master write average memory access latency
system.mem_ctrls.pageHitRate                    74.08                       # Row buffer hit rate, read and write combined
system.mem_ctrls.rank1.actEnergy               435540                       # Energy for activate commands per rank (pJ)
system.mem_ctrls.rank1.preEnergy               208725                       # Energy for precharge commands per rank (pJ)
system.mem_ctrls.rank1.readEnergy             1785000                       # Energy for read commands per rank (pJ)
system.mem_ctrls.rank1.writeEnergy              15660                       # Energy for write commands per rank (pJ)
system.mem_ctrls.rank1.refreshEnergy     87893520.000000                       # Energy for refresh commands per rank (pJ)
system.mem_ctrls.rank1.actBackEnergy         34457070                       # Energy for active background per rank (pJ)
system.mem_ctrls.rank1.preBackEnergy        400157280                       # Energy for precharge background per rank (pJ)
system.mem_ctrls.rank1.actPowerDownEnergy            0                       # Energy for active power-down per rank (pJ)
system.mem_ctrls.rank1.prePowerDownEnergy            0                       # Energy for precharge power-down per rank (pJ)
system.mem_ctrls.rank1.selfRefreshEnergy            0                       # Energy for self refresh per rank (pJ)
system.mem_ctrls.rank1.totalEnergy          524952795                       # Total energy per rank (pJ)
system.mem_ctrls.rank1.averagePower        469.697993                       # Core power per rank (mW)
system.mem_ctrls.rank1.totalIdleTime                0                       # Total Idle time Per DRAM Rank
system.mem_ctrls.rank1.memoryStateTime::IDLE   1040012000                       # Time in different power states
system.mem_ctrls.rank1.memoryStateTime::REF     37180000                       # Time in different power states
system.mem_ctrls.rank1.memoryStateTime::SREF            0                       # Time in different power states
system.mem_ctrls.rank1.memoryStateTime::PRE_PDN            0                       # Time in different power states
system.mem_ctrls.rank1.memoryStateTime::ACT     40447000                       # Time in different power states
system.mem_ctrls.rank1.memoryStateTime::ACT_PDN            0                       # Time in different power states
system.mem_ctrls.rank0.actEnergy               328440                       # Energy for activate commands per rank (pJ)
system.mem_ctrls.rank0.preEnergy               151800                       # Energy for precharge commands per rank (pJ)
system.mem_ctrls.rank0.readEnergy             1442280                       # Energy for read commands per rank (pJ)
system.mem_ctrls.rank0.writeEnergy              78300                       # Energy for write commands per rank (pJ)
system.mem_ctrls.rank0.refreshEnergy     87893520.000000                       # Energy for refresh commands per rank (pJ)
system.mem_ctrls.rank0.actBackEnergy         34607550                       # Energy for active background per rank (pJ)
system.mem_ctrls.rank0.preBackEnergy        400030560                       # Energy for precharge background per rank (pJ)
system.mem_ctrls.rank0.actPowerDownEnergy            0                       # Energy for active power-down per rank (pJ)
system.mem_ctrls.rank0.prePowerDownEnergy            0                       # Energy for precharge power-down per rank (pJ)
system.mem_ctrls.rank0.selfRefreshEnergy            0                       # Energy for self refresh per rank (pJ)
system.mem_ctrls.rank0.totalEnergy          524532450                       # Total energy per rank (pJ)
system.mem_ctrls.rank0.averagePower        469.321892                       # Core power per rank (mW)
system.mem_ctrls.rank0.totalIdleTime                0                       # Total Idle time Per DRAM Rank
system.mem_ctrls.rank0.memoryStateTime::IDLE   1039709500                       # Time in different power states
system.mem_ctrls.rank0.memoryStateTime::REF     37180000                       # Time in different power states
system.mem_ctrls.rank0.memoryStateTime::SREF            0                       # Time in different power states
system.mem_ctrls.rank0.memoryStateTime::PRE_PDN            0                       # Time in different power states
system.mem_ctrls.rank0.memoryStateTime::ACT     40749500                       # Time in different power states
system.mem_ctrls.rank0.memoryStateTime::ACT_PDN            0                       # Time in different power states
system.cpu_clk_domain.clock                       500                       # Clock period in ticks
system.cpu.numPwrStateTransitions                   1                       # Number of power state transitions
system.cpu.pwrStateResidencyTicks::ON      1117639000                       # Cumulative time (in ticks) in various power states
system.cpu.icache.pwrStateResidencyTicks::UNDEFINED   1117639000                       # Cumulative time (in ticks) in various power states
system.cpu.icache.demand_hits::.cpu.inst       766780                       # number of demand (read+write) hits
system.cpu.icache.demand_hits::total           766780                       # number of demand (read+write) hits
system.cpu.icache.overall_hits::.cpu.inst       766780                       # number of overall hits
system.cpu.icache.overall_hits::total          766780                       # number of overall hits
system.cpu.icache.demand_misses::.cpu.inst          386                       # number of demand (read+write) misses
system.cpu.icache.demand_misses::total            386                       # number of demand (read+write) misses
system.cpu.icache.overall_misses::.cpu.inst          386                       # number of overall misses
system.cpu.icache.overall_misses::total           386                       # number of overall misses
system.cpu.icache.demand_miss_latency::.cpu.inst     18953500                       # number of demand (read+write) miss cycles
system.cpu.icache.demand_miss_latency::total     18953500                       # number of demand (read+write) miss cycles
system.cpu.icache.overall_miss_latency::.cpu.inst     18953500                       # number of overall miss cycles
system.cpu.icache.overall_miss_latency::total     18953500                       # number of overall miss cycles
system.cpu.icache.demand_accesses::.cpu.inst       767166                       # number of demand (read+write) accesses
system.cpu.icache.demand_accesses::total       767166                       # number of demand (read+write) accesses
system.cpu.icache.overall_accesses::.cpu.inst       767166                       # number of overall (read+write) accesses
system.cpu.icache.overall_accesses::total       767166                       # number of overall (read+write) accesses
system.cpu.icache.demand_miss_rate::.cpu.inst     0.000503                       # miss rate for demand accesses
system.cpu.icache.demand_miss_rate::total     0.000503                       # miss rate for demand accesses
system.cpu.icache.overall_miss_rate::.cpu.inst     0.000503                       # miss rate for overall accesses
system.cpu.icache.overall_miss_rate::total     0.000503                       # miss rate for overall accesses
system.cpu.icache.demand_avg_miss_latency::.cpu.inst 49102.331606                       # average overall miss latency
system.cpu.icache.demand_avg_miss_latency::total 49102.331606                       # average overall miss latency
system.cpu.icache.overall_avg_miss_latency::.cpu.inst 49102.331606                       # average overall miss latency
system.cpu.icache.overall_avg_miss_latency::total 49102.331606                       # average overall miss latency
system.cpu.icache.blocked_cycles::no_mshrs            0                       # number of cycles access was blocked
system.cpu.icache.blocked_cycles::no_targets            0                       # number of cycles access was blocked
system.cpu.icache.blocked::no_mshrs                 0                       # number of cycles access was blocked
system.cpu.icache.blocked::no_targets               0                       # number of cycles access was blocked
system.cpu.icache.avg_blocked_cycles::no_mshrs          nan                       # average number of cycles each access was blocked
system.cpu.icache.avg_blocked_cycles::no_targets          nan                       # average number of cycles each access was blocked
system.cpu.icache.writebacks::.writebacks          133                       # number of writebacks
system.cpu.icache.writebacks::total               133                       # number of writebacks
system.cpu.icache.demand_mshr_misses::.cpu.inst          386                       # number of demand (read+write) MSHR misses
system.cpu.icache.demand_mshr_misses::total          386                       # number of demand (read+write) MSHR misses
system.cpu.icache.overall_mshr_misses::.cpu.inst          386                       # number of overall MSHR misses
system.cpu.icache.overall_mshr_misses::total          386                       # number of overall MSHR misses
system.cpu.icache.demand_mshr_miss_latency::.cpu.inst     18567500                       # number of demand (read+write) MSHR miss cycles
system.cpu.icache.demand_mshr_miss_latency::total     18567500                       # number of demand (read+write) MSHR miss cycles
system.cpu.icache.overall_mshr_miss_latency::.cpu.inst     18567500                       # number of overall MSHR miss cycles
system.cpu.icache.overall_mshr_miss_latency::total     18567500                       # number of overall MSHR miss cycles
system.cpu.icache.demand_mshr_miss_rate::.cpu.inst     0.000503                       # mshr miss rate for demand accesses
system.cpu.icache.demand_mshr_miss_rate::total     0.000503                       # mshr miss rate for demand accesses
system.cpu.icache.overall_mshr_miss_rate::.cpu.inst     0.000503                       # mshr miss rate for overall accesses
system.cpu.icache.overall_mshr_miss_rate::total     0.000503                       # mshr miss rate for overall accesses
system.cpu.icache.demand_avg_mshr_miss_latency::.cpu.inst 48102.331606                       # average overall mshr miss latency
system.cpu.icache.demand_avg_mshr_miss_latency::total 48102.331606                       # average overall mshr miss latency
system.cpu.icache.overall_avg_mshr_miss_latency::.cpu.inst 48102.331606                       # average overall mshr miss latency
system.cpu.icache.overall_avg_mshr_miss_latency::total 48102.331606                       # average overall mshr miss latency
system.cpu.icache.replacements                    133                       # number of replacements
system.cpu.icache.ReadReq_hits::.cpu.inst       766780                       # number of ReadReq hits
system.cpu.icache.ReadReq_hits::total          766780                       # number of ReadReq hits
system.cpu.icache.ReadReq_misses::.cpu.inst          386                       # number of ReadReq misses
system.cpu.icache.ReadReq_misses::total           386                       # number of ReadReq misses
system.cpu.icache.ReadReq_miss_latency::.cpu.inst     18953500                       # number of ReadReq miss cycles
system.cpu.icache.ReadReq_miss_latency::total     18953500                       # number of ReadReq miss cycles
system.cpu.icache.ReadReq_accesses::.cpu.inst       767166                       # number of ReadReq accesses(hits+misses)
system.cpu.icache.ReadReq_accesses::total       767166                       # number of ReadReq accesses(hits+misses)
system.cpu.icache.ReadReq_miss_rate::.cpu.inst     0.000503                       # miss rate for ReadReq accesses
system.cpu.icache.ReadReq_miss_rate::total     0.000503                       # miss rate for ReadReq accesses
system.cpu.icache.ReadReq_avg_miss_latency::.cpu.inst 49102.331606                       # average ReadReq miss latency
system.cpu.icache.ReadReq_avg_miss_latency::total 49102.331606                       # average ReadReq miss latency
system.cpu.icache.ReadReq_mshr_misses::.cpu.inst          386                       # number of ReadReq MSHR misses
system.cpu.icache.ReadReq_mshr_misses::total          386                       # number of ReadReq MSHR misses
system.cpu.icache.ReadReq_mshr_miss_latency::.cpu.inst     18567500                       # number of ReadReq MSHR miss cycles
system.cpu.icache.ReadReq_mshr_miss_latency::total     18567500                       # number of ReadReq MSHR miss cycles
system.cpu.icache.ReadReq_mshr_miss_rate::.cpu.inst     0.000503                       # mshr miss rate for ReadReq accesses
system.cpu.icache.ReadReq_mshr_miss_rate::total     0.000503                       # mshr miss rate for ReadReq accesses
system.cpu.icache.ReadReq_avg_mshr_miss_latency::.cpu.inst 48102.331606                       # average ReadReq mshr miss latency
system.cpu.icache.ReadReq_avg_mshr_miss_latency::total 48102.331606                       # average ReadReq mshr miss latency
system.cpu.icache.tags.pwrStateResidencyTicks::UNDEFINED   1117639000                       # Cumulative time (in ticks) in various power states
system.cpu.icache.tags.tagsinuse           225.514097                       # Cycle average of tags in use
system.cpu.icache.tags.total_refs              767166                       # Total number of references to valid blocks.
system.cpu.icache.tags.sampled_refs               386                       # Sample count of references to valid blocks.
system.cpu.icache.tags.avg_refs           1987.476684                       # Average number of references to valid blocks.
system.cpu.icache.tags.warmup_cycle             77000                       # Cycle when the warmup percentage was hit.
system.cpu.icache.tags.occ_blocks::.cpu.inst   225.514097                       # Average occupied blocks per requestor
system.cpu.icache.tags.occ_percent::.cpu.inst     0.440457                       # Average percentage of cache occupancy
system.cpu.icache.tags.occ_percent::total     0.440457                       # Average percentage of cache occupancy
system.cpu.icache.tags.occ_task_id_blocks::1024          253                       # Occupied blocks per task id
system.cpu.icache.tags.age_task_id_blocks_1024::0           38                       # Occupied blocks per task id
system.cpu.icache.tags.age_task_id_blocks_1024::3          215                       # Occupied blocks per task id
system.cpu.icache.tags.occ_task_id_percent::1024     0.494141                       # Percentage of cache occupancy per task id
system.cpu.icache.tags.tag_accesses           1534718                       # Number of tag accesses
system.cpu.icache.tags.data_accesses          1534718                       # Number of data accesses
system.cpu.dtb.walker.pwrStateResidencyTicks::UNDEFINED   1117639000                       # Cumulative time (in ticks) in various power states
system.cpu.dtb.stage2_mmu.stage2_tlb.walker.pwrStateResidencyTicks::UNDEFINED   1117639000                       # Cumulative time (in ticks) in various power states
system.cpu.itb.walker.pwrStateResidencyTicks::UNDEFINED   1117639000                       # Cumulative time (in ticks) in various power states
system.cpu.itb.stage2_mmu.stage2_tlb.walker.pwrStateResidencyTicks::UNDEFINED   1117639000                       # Cumulative time (in ticks) in various power states
system.cpu.dcache.pwrStateResidencyTicks::UNDEFINED   1117639000                       # Cumulative time (in ticks) in various power states
system.cpu.dcache.demand_hits::.cpu.data       323572                       # number of demand (read+write) hits
system.cpu.dcache.demand_hits::total           323572                       # number of demand (read+write) hits
system.cpu.dcache.overall_hits::.cpu.data       323594                       # number of overall hits
system.cpu.dcache.overall_hits::total          323594                       # number of overall hits
system.cpu.dcache.demand_misses::.cpu.data          163                       # number of demand (read+write) misses
system.cpu.dcache.demand_misses::total            163                       # number of demand (read+write) misses
system.cpu.dcache.overall_misses::.cpu.data          170                       # number of overall misses
system.cpu.dcache.overall_misses::total           170                       # number of overall misses
system.cpu.dcache.demand_miss_latency::.cpu.data      9022500                       # number of demand (read+write) miss cycles
system.cpu.dcache.demand_miss_latency::total      9022500                       # number of demand (read+write) miss cycles
system.cpu.dcache.overall_miss_latency::.cpu.data      9022500                       # number of overall miss cycles
system.cpu.dcache.overall_miss_latency::total      9022500                       # number of overall miss cycles
system.cpu.dcache.demand_accesses::.cpu.data       323735                       # number of demand (read+write) accesses
system.cpu.dcache.demand_accesses::total       323735                       # number of demand (read+write) accesses
system.cpu.dcache.overall_accesses::.cpu.data       323764                       # number of overall (read+write) accesses
system.cpu.dcache.overall_accesses::total       323764                       # number of overall (read+write) accesses
system.cpu.dcache.demand_miss_rate::.cpu.data     0.000503                       # miss rate for demand accesses
system.cpu.dcache.demand_miss_rate::total     0.000503                       # miss rate for demand accesses
system.cpu.dcache.overall_miss_rate::.cpu.data     0.000525                       # miss rate for overall accesses
system.cpu.dcache.overall_miss_rate::total     0.000525                       # miss rate for overall accesses
system.cpu.dcache.demand_avg_miss_latency::.cpu.data 55352.760736                       # average overall miss latency
system.cpu.dcache.demand_avg_miss_latency::total 55352.760736                       # average overall miss latency
system.cpu.dcache.overall_avg_miss_latency::.cpu.data 53073.529412                       # average overall miss latency
system.cpu.dcache.overall_avg_miss_latency::total 53073.529412                       # average overall miss latency
system.cpu.dcache.blocked_cycles::no_mshrs            0                       # number of cycles access was blocked
system.cpu.dcache.blocked_cycles::no_targets            0                       # number of cycles access was blocked
system.cpu.dcache.blocked::no_mshrs                 0                       # number of cycles access was blocked
system.cpu.dcache.blocked::no_targets               0                       # number of cycles access was blocked
system.cpu.dcache.avg_blocked_cycles::no_mshrs          nan                       # average number of cycles each access was blocked
system.cpu.dcache.avg_blocked_cycles::no_targets          nan                       # average number of cycles each access was blocked
system.cpu.dcache.demand_mshr_hits::.cpu.data            1                       # number of demand (read+write) MSHR hits
system.cpu.dcache.demand_mshr_hits::total            1                       # number of demand (read+write) MSHR hits
system.cpu.dcache.overall_mshr_hits::.cpu.data            1                       # number of overall MSHR hits
system.cpu.dcache.overall_mshr_hits::total            1                       # number of overall MSHR hits
system.cpu.dcache.demand_mshr_misses::.cpu.data          162                       # number of demand (read+write) MSHR misses
system.cpu.dcache.demand_mshr_misses::total          162                       # number of demand (read+write) MSHR misses
system.cpu.dcache.overall_mshr_misses::.cpu.data          168                       # number of overall MSHR misses
system.cpu.dcache.overall_mshr_misses::total          168                       # number of overall MSHR misses
system.cpu.dcache.demand_mshr_miss_latency::.cpu.data      8802500                       # number of demand (read+write) MSHR miss cycles
system.cpu.dcache.demand_mshr_miss_latency::total      8802500                       # number of demand (read+write) MSHR miss cycles
system.cpu.dcache.overall_mshr_miss_latency::.cpu.data      9130500                       # number of overall MSHR miss cycles
system.cpu.dcache.overall_mshr_miss_latency::total      9130500                       # number of overall MSHR miss cycles
system.cpu.dcache.demand_mshr_miss_rate::.cpu.data     0.000500                       # mshr miss rate for demand accesses
system.cpu.dcache.demand_mshr_miss_rate::total     0.000500                       # mshr miss rate for demand accesses
system.cpu.dcache.overall_mshr_miss_rate::.cpu.data     0.000519                       # mshr miss rate for overall accesses
system.cpu.dcache.overall_mshr_miss_rate::total     0.000519                       # mshr miss rate for overall accesses
system.cpu.dcache.demand_avg_mshr_miss_latency::.cpu.data 54336.419753                       # average overall mshr miss latency
system.cpu.dcache.demand_avg_mshr_miss_latency::total 54336.419753                       # average overall mshr miss latency
system.cpu.dcache.overall_avg_mshr_miss_latency::.cpu.data 54348.214286                       # average overall mshr miss latency
system.cpu.dcache.overall_avg_mshr_miss_latency::total 54348.214286                       # average overall mshr miss latency
system.cpu.dcache.replacements                      0                       # number of replacements
system.cpu.dcache.ReadReq_hits::.cpu.data       178049                       # number of ReadReq hits
system.cpu.dcache.ReadReq_hits::total          178049                       # number of ReadReq hits
system.cpu.dcache.ReadReq_misses::.cpu.data           94                       # number of ReadReq misses
system.cpu.dcache.ReadReq_misses::total            94                       # number of ReadReq misses
system.cpu.dcache.ReadReq_miss_latency::.cpu.data      5237000                       # number of ReadReq miss cycles
system.cpu.dcache.ReadReq_miss_latency::total      5237000                       # number of ReadReq miss cycles
system.cpu.dcache.ReadReq_accesses::.cpu.data       178143                       # number of ReadReq accesses(hits+misses)
system.cpu.dcache.ReadReq_accesses::total       178143                       # number of ReadReq accesses(hits+misses)
system.cpu.dcache.ReadReq_miss_rate::.cpu.data     0.000528                       # miss rate for ReadReq accesses
system.cpu.dcache.ReadReq_miss_rate::total     0.000528                       # miss rate for ReadReq accesses
system.cpu.dcache.ReadReq_avg_miss_latency::.cpu.data 55712.765957                       # average ReadReq miss latency
system.cpu.dcache.ReadReq_avg_miss_latency::total 55712.765957                       # average ReadReq miss latency
system.cpu.dcache.ReadReq_mshr_hits::.cpu.data            1                       # number of ReadReq MSHR hits
system.cpu.dcache.ReadReq_mshr_hits::total            1                       # number of ReadReq MSHR hits
system.cpu.dcache.ReadReq_mshr_misses::.cpu.data           93                       # number of ReadReq MSHR misses
system.cpu.dcache.ReadReq_mshr_misses::total           93                       # number of ReadReq MSHR misses
system.cpu.dcache.ReadReq_mshr_miss_latency::.cpu.data      5086000                       # number of ReadReq MSHR miss cycles
system.cpu.dcache.ReadReq_mshr_miss_latency::total      5086000                       # number of ReadReq MSHR miss cycles
system.cpu.dcache.ReadReq_mshr_miss_rate::.cpu.data     0.000522                       # mshr miss rate for ReadReq accesses
system.cpu.dcache.ReadReq_mshr_miss_rate::total     0.000522                       # mshr miss rate for ReadReq accesses
system.cpu.dcache.ReadReq_avg_mshr_miss_latency::.cpu.data 54688.172043                       # average ReadReq mshr miss latency
system.cpu.dcache.ReadReq_avg_mshr_miss_latency::total 54688.172043                       # average ReadReq mshr miss latency
system.cpu.dcache.WriteReq_hits::.cpu.data       145523                       # number of WriteReq hits
system.cpu.dcache.WriteReq_hits::total         145523                       # number of WriteReq hits
system.cpu.dcache.WriteReq_misses::.cpu.data           69                       # number of WriteReq misses
system.cpu.dcache.WriteReq_misses::total           69                       # number of WriteReq misses
system.cpu.dcache.WriteReq_miss_latency::.cpu.data      3785500                       # number of WriteReq miss cycles
system.cpu.dcache.WriteReq_miss_latency::total      3785500                       # number of WriteReq miss cycles
system.cpu.dcache.WriteReq_accesses::.cpu.data       145592                       # number of WriteReq accesses(hits+misses)
system.cpu.dcache.WriteReq_accesses::total       145592                       # number of WriteReq accesses(hits+misses)
system.cpu.dcache.WriteReq_miss_rate::.cpu.data     0.000474                       # miss rate for WriteReq accesses
system.cpu.dcache.WriteReq_miss_rate::total     0.000474                       # miss rate for WriteReq accesses
system.cpu.dcache.WriteReq_avg_miss_latency::.cpu.data 54862.318841                       # average WriteReq miss latency
system.cpu.dcache.WriteReq_avg_miss_latency::total 54862.318841                       # average WriteReq miss latency
system.cpu.dcache.WriteReq_mshr_misses::.cpu.data           69                       # number of WriteReq MSHR misses
system.cpu.dcache.WriteReq_mshr_misses::total           69                       # number of WriteReq MSHR misses
system.cpu.dcache.WriteReq_mshr_miss_latency::.cpu.data      3716500                       # number of WriteReq MSHR miss cycles
system.cpu.dcache.WriteReq_mshr_miss_latency::total      3716500                       # number of WriteReq MSHR miss cycles
system.cpu.dcache.WriteReq_mshr_miss_rate::.cpu.data     0.000474                       # mshr miss rate for WriteReq accesses
system.cpu.dcache.WriteReq_mshr_miss_rate::total     0.000474                       # mshr miss rate for WriteReq accesses
system.cpu.dcache.WriteReq_avg_mshr_miss_latency::.cpu.data 53862.318841                       # average WriteReq mshr miss latency
system.cpu.dcache.WriteReq_avg_mshr_miss_latency::total 53862.318841                       # average WriteReq mshr miss latency
system.cpu.dcache.SoftPFReq_hits::.cpu.data           22                       # number of SoftPFReq hits
system.cpu.dcache.SoftPFReq_hits::total            22                       # number of SoftPFReq hits
system.cpu.dcache.SoftPFReq_misses::.cpu.data            7                       # number of SoftPFReq misses
system.cpu.dcache.SoftPFReq_misses::total            7                       # number of SoftPFReq misses
system.cpu.dcache.SoftPFReq_accesses::.cpu.data           29                       # number of SoftPFReq accesses(hits+misses)
system.cpu.dcache.SoftPFReq_accesses::total           29                       # number of SoftPFReq accesses(hits+misses)
system.cpu.dcache.SoftPFReq_miss_rate::.cpu.data     0.241379                       # miss rate for SoftPFReq accesses
system.cpu.dcache.SoftPFReq_miss_rate::total     0.241379                       # miss rate for SoftPFReq accesses
system.cpu.dcache.SoftPFReq_mshr_misses::.cpu.data            6                       # number of SoftPFReq MSHR misses
system.cpu.dcache.SoftPFReq_mshr_misses::total            6                       # number of SoftPFReq MSHR misses
system.cpu.dcache.SoftPFReq_mshr_miss_latency::.cpu.data       328000                       # number of SoftPFReq MSHR miss cycles
system.cpu.dcache.SoftPFReq_mshr_miss_latency::total       328000                       # number of SoftPFReq MSHR miss cycles
system.cpu.dcache.SoftPFReq_mshr_miss_rate::.cpu.data     0.206897                       # mshr miss rate for SoftPFReq accesses
system.cpu.dcache.SoftPFReq_mshr_miss_rate::total     0.206897                       # mshr miss rate for SoftPFReq accesses
system.cpu.dcache.SoftPFReq_avg_mshr_miss_latency::.cpu.data 54666.666667                       # average SoftPFReq mshr miss latency
system.cpu.dcache.SoftPFReq_avg_mshr_miss_latency::total 54666.666667                       # average SoftPFReq mshr miss latency
system.cpu.dcache.LoadLockedReq_hits::.cpu.data           56                       # number of LoadLockedReq hits
system.cpu.dcache.LoadLockedReq_hits::total           56                       # number of LoadLockedReq hits
system.cpu.dcache.LoadLockedReq_accesses::.cpu.data           56                       # number of LoadLockedReq accesses(hits+misses)
system.cpu.dcache.LoadLockedReq_accesses::total           56                       # number of LoadLockedReq accesses(hits+misses)
system.cpu.dcache.StoreCondReq_hits::.cpu.data           56                       # number of StoreCondReq hits
system.cpu.dcache.StoreCondReq_hits::total           56                       # number of StoreCondReq hits
system.cpu.dcache.StoreCondReq_accesses::.cpu.data           56                       # number of StoreCondReq accesses(hits+misses)
system.cpu.dcache.StoreCondReq_accesses::total           56                       # number of StoreCondReq accesses(hits+misses)
system.cpu.dcache.tags.pwrStateResidencyTicks::UNDEFINED   1117639000                       # Cumulative time (in ticks) in various power states
system.cpu.dcache.tags.tagsinuse           153.907885                       # Cycle average of tags in use
system.cpu.dcache.tags.total_refs              323874                       # Total number of references to valid blocks.
system.cpu.dcache.tags.sampled_refs               168                       # Sample count of references to valid blocks.
system.cpu.dcache.tags.avg_refs           1927.821429                       # Average number of references to valid blocks.
system.cpu.dcache.tags.warmup_cycle            148000                       # Cycle when the warmup percentage was hit.
system.cpu.dcache.tags.occ_blocks::.cpu.data   153.907885                       # Average occupied blocks per requestor
system.cpu.dcache.tags.occ_percent::.cpu.data     0.150301                       # Average percentage of cache occupancy
system.cpu.dcache.tags.occ_percent::total     0.150301                       # Average percentage of cache occupancy
system.cpu.dcache.tags.occ_task_id_blocks::1024          168                       # Occupied blocks per task id
system.cpu.dcache.tags.age_task_id_blocks_1024::0           12                       # Occupied blocks per task id
system.cpu.dcache.tags.age_task_id_blocks_1024::3          156                       # Occupied blocks per task id
system.cpu.dcache.tags.occ_task_id_percent::1024     0.164062                       # Percentage of cache occupancy per task id
system.cpu.dcache.tags.tag_accesses            647920                       # Number of tag accesses
system.cpu.dcache.tags.data_accesses           647920                       # Number of data accesses

---------- End Simulation Statistics   ----------
